<configuration>
    <input>
        <net-file value="mapCruzamentoPequeno.net.xml"/>
        <route-files value="routes2.rou.xml"/>
        <additional-files value="tls.add.xml"/>
    </input>
    <time>
        <begin value="0"/>
        <end value="1000"/>
        <step-length value="0.5"/>
    </time>
    <gui_only>
        <delay value="400">
    </gui_only>
</configuration>
