<?xml version="1.0" encoding="UTF-8"?>


<net version="1.20" junctionCornerDetail="5" limitTurnSpeed="5.50" avoidOverlap="0" xmlns:xsi="http://www.w3.org/2001/XMLSchema-instance" xsi:noNamespaceSchemaLocation="http://sumo.dlr.de/xsd/net_file.xsd">

    <location netOffset="-516150.43,-4398963.13" convBoundary="0.00,0.00,272.04,267.33" origBoundary="-8.811507,39.740409,-8.808332,39.742818" projParameter="+proj=utm +zone=29 +ellps=WGS84 +datum=WGS84 +units=m +no_defs"/>

    <type id="highway.footway" priority="1" numLanes="1" speed="2.78" allow="pedestrian" oneway="1" width="2.00"/>
    <type id="highway.pedestrian" priority="1" numLanes="1" speed="2.78" allow="pedestrian" oneway="1" width="2.00"/>
    <type id="highway.residential" priority="3" numLanes="1" speed="13.89" disallow="tram rail_urban rail rail_electric rail_fast ship container cable_car subway aircraft wheelchair scooter drone" oneway="0"/>
    <type id="highway.secondary" priority="11" numLanes="1" speed="27.78" disallow="tram rail_urban rail rail_electric rail_fast ship container cable_car subway aircraft wheelchair scooter drone" oneway="0"/>
    <type id="highway.service" priority="1" numLanes="1" speed="5.56" allow="pedestrian delivery bicycle" oneway="0"/>
    <type id="highway.steps" priority="1" numLanes="1" speed="1.39" allow="pedestrian" oneway="1" width="2.00"/>
    <type id="highway.tertiary" priority="10" numLanes="1" speed="22.22" disallow="tram rail_urban rail rail_electric rail_fast ship container cable_car subway aircraft wheelchair scooter drone" oneway="0"/>

    <edge id=":102768717_0" function="internal">
        <lane id=":102768717_0_0" index="0" disallow="tram rail_urban rail rail_electric rail_fast ship container cable_car subway aircraft wheelchair scooter drone" speed="22.22" length="7.89" shape="92.61,125.91 86.76,120.65"/>
        <lane id=":102768717_0_1" index="1" disallow="tram rail_urban rail rail_electric rail_fast ship container cable_car subway aircraft wheelchair scooter drone" speed="22.22" length="7.89" shape="94.76,123.53 88.89,118.26"/>
        <lane id=":102768717_0_2" index="2" disallow="tram rail_urban rail rail_electric rail_fast ship container cable_car subway aircraft wheelchair scooter drone" speed="22.22" length="7.89" shape="96.90,121.16 91.03,115.88"/>
        <lane id=":102768717_0_3" index="3" disallow="tram rail_urban rail rail_electric rail_fast ship container cable_car subway aircraft wheelchair scooter drone" speed="22.22" length="7.89" shape="99.05,118.78 93.16,113.49"/>
    </edge>
    <edge id=":102768718_0" function="internal">
        <lane id=":102768718_0_0" index="0" disallow="tram rail_urban rail rail_electric rail_fast ship container cable_car subway aircraft wheelchair scooter drone" speed="22.22" length="0.10" shape="86.55,120.46 86.52,120.43"/>
        <lane id=":102768718_0_1" index="1" disallow="tram rail_urban rail rail_electric rail_fast ship container cable_car subway aircraft wheelchair scooter drone" speed="22.22" length="0.10" shape="88.69,118.08 88.67,118.06"/>
        <lane id=":102768718_0_2" index="2" disallow="tram rail_urban rail rail_electric rail_fast ship container cable_car subway aircraft wheelchair scooter drone" speed="22.22" length="0.10" shape="90.82,115.69 90.81,115.68"/>
        <lane id=":102768718_0_3" index="3" disallow="tram rail_urban rail rail_electric rail_fast ship container cable_car subway aircraft wheelchair scooter drone" speed="22.22" length="0.10" shape="92.95,113.31 92.96,113.31"/>
    </edge>
    <edge id=":11949799436_0" function="internal">
        <lane id=":11949799436_0_0" index="0" allow="pedestrian delivery bicycle" speed="5.56" length="2.49" shape="109.84,124.00 108.13,125.81"/>
    </edge>
    <edge id=":11949832341_0" function="internal">
        <lane id=":11949832341_0_0" index="0" allow="pedestrian delivery bicycle" speed="5.56" length="5.24" shape="158.24,93.67 156.84,93.00 155.92,92.47 155.03,91.88 153.75,91.00"/>
    </edge>
    <edge id=":11949832341_1" function="internal">
        <lane id=":11949832341_1_0" index="0" allow="pedestrian delivery bicycle" speed="3.67" length="1.35" shape="158.24,93.67 157.72,92.43"/>
    </edge>
    <edge id=":11949832341_4" function="internal">
        <lane id=":11949832341_4_0" index="0" allow="pedestrian delivery bicycle" speed="3.67" length="3.38" shape="157.72,92.43 157.68,92.32 157.80,91.43 158.58,90.98 160.05,90.98"/>
    </edge>
    <edge id=":11949832341_2" function="internal">
        <lane id=":11949832341_2_0" index="0" allow="pedestrian delivery bicycle" speed="5.56" length="5.25" shape="155.52,88.34 156.81,89.21 157.71,89.79 158.64,90.31 160.05,90.98"/>
    </edge>
    <edge id=":11949832341_3" function="internal">
        <lane id=":11949832341_3_0" index="0" allow="pedestrian delivery bicycle" speed="3.65" length="1.44" shape="155.52,88.34 156.08,89.67"/>
    </edge>
    <edge id=":11949832341_5" function="internal">
        <lane id=":11949832341_5_0" index="0" allow="pedestrian delivery bicycle" speed="3.65" length="3.23" shape="156.08,89.67 155.97,90.56 155.19,91.00 153.75,91.00"/>
    </edge>
    <edge id=":11949872882_0" function="internal">
        <lane id=":11949872882_0_0" index="0" allow="pedestrian delivery bicycle" speed="5.56" length="2.80" shape="109.69,143.38 107.82,145.47"/>
    </edge>
    <edge id=":11949872882_1" function="internal">
        <lane id=":11949872882_1_0" index="0" allow="pedestrian delivery bicycle" speed="3.65" length="1.44" shape="109.69,143.38 108.29,143.74"/>
    </edge>
    <edge id=":11949872882_4" function="internal">
        <lane id=":11949872882_4_0" index="0" allow="pedestrian delivery bicycle" speed="3.65" length="3.23" shape="108.29,143.74 107.43,143.51 107.10,142.68 107.30,141.25"/>
    </edge>
    <edge id=":11949872882_2" function="internal">
        <lane id=":11949872882_2_0" index="0" allow="pedestrian delivery bicycle" speed="5.56" length="2.81" shape="105.43,143.35 107.30,141.25"/>
    </edge>
    <edge id=":11949872882_3" function="internal">
        <lane id=":11949872882_3_0" index="0" allow="pedestrian delivery bicycle" speed="3.65" length="1.44" shape="105.43,143.35 106.82,142.98"/>
    </edge>
    <edge id=":11949872882_5" function="internal">
        <lane id=":11949872882_5_0" index="0" allow="pedestrian delivery bicycle" speed="3.65" length="3.23" shape="106.82,142.98 107.69,143.22 108.02,144.05 107.82,145.47"/>
    </edge>
    <edge id=":1864358566_0" function="internal">
        <lane id=":1864358566_0_0" index="0" disallow="tram rail_urban rail rail_electric rail_fast ship container cable_car subway aircraft wheelchair scooter drone" speed="3.65" length="4.67" shape="-1.27,39.07 -1.36,37.63 -0.97,36.83 -0.09,36.66 1.27,37.13"/>
    </edge>
    <edge id=":2026908697_0" function="internal">
        <lane id=":2026908697_0_0" index="0" allow="pedestrian delivery bicycle" speed="3.65" length="4.67" shape="172.11,54.59 173.55,54.57 174.33,55.01 174.45,55.90 173.91,57.23"/>
    </edge>
    <edge id=":2026908702_0" function="internal">
        <lane id=":2026908702_0_0" index="0" allow="pedestrian delivery bicycle" speed="5.56" length="5.32" shape="161.85,65.42 160.56,66.33 159.74,67.03 158.98,67.81 157.89,68.95"/>
    </edge>
    <edge id=":2026908702_1" function="internal">
        <lane id=":2026908702_1_0" index="0" allow="pedestrian delivery bicycle" speed="5.56" length="7.50" shape="161.85,65.42 161.01,65.51 159.62,65.03 157.68,63.98 155.17,62.35"/>
    </edge>
    <edge id=":2026908702_2" function="internal">
        <lane id=":2026908702_2_0" index="0" allow="pedestrian delivery bicycle" speed="3.65" length="4.67" shape="161.85,65.42 160.40,65.43 159.62,64.99 159.50,64.11 160.05,62.77"/>
    </edge>
    <edge id=":2026908702_3" function="internal">
        <lane id=":2026908702_3_0" index="0" allow="pedestrian delivery bicycle" speed="4.88" length="5.22" shape="155.60,66.71 156.47,65.53 156.68,64.41 156.25,63.35 155.17,62.35"/>
    </edge>
    <edge id=":2026908702_4" function="internal">
        <lane id=":2026908702_4_0" index="0" allow="pedestrian delivery bicycle" speed="5.56" length="5.96" shape="155.60,66.71 156.83,65.44 157.68,64.57 158.61,63.79 160.05,62.77"/>
    </edge>
    <edge id=":2026908702_5" function="internal">
        <lane id=":2026908702_5_0" index="0" allow="pedestrian delivery bicycle" speed="3.65" length="4.67" shape="155.60,66.71 157.01,66.42 157.86,66.69 158.15,67.53 157.89,68.95"/>
    </edge>
    <edge id=":2026908724_0" function="internal">
        <lane id=":2026908724_0_0" index="0" allow="pedestrian delivery bicycle" speed="3.65" length="4.67" shape="93.11,108.37 92.61,107.02 92.75,106.13 93.54,105.72 94.99,105.77"/>
    </edge>
    <edge id=":2026908835_0" function="internal">
        <lane id=":2026908835_0_0" index="0" allow="pedestrian delivery bicycle" speed="5.56" length="4.89" shape="113.99,121.32 112.61,121.67 111.73,122.11 110.97,122.80 109.98,123.85"/>
    </edge>
    <edge id=":2026908835_1" function="internal">
        <lane id=":2026908835_1_0" index="0" allow="pedestrian delivery bicycle" speed="5.56" length="5.85" shape="113.99,121.32 112.79,121.38 111.49,121.10 110.09,120.48 108.58,119.53"/>
    </edge>
    <edge id=":2026908835_2" function="internal">
        <lane id=":2026908835_2_0" index="0" allow="pedestrian delivery bicycle" speed="3.65" length="4.67" shape="113.99,121.32 112.66,120.76 112.12,120.06 112.35,119.19 113.38,118.18"/>
    </edge>
    <edge id=":2026908835_3" function="internal">
        <lane id=":2026908835_3_0" index="0" allow="pedestrian delivery bicycle" speed="5.56" length="4.74" shape="109.21,116.03 110.07,116.64 111.23,117.40 112.43,118.01 113.38,118.18"/>
    </edge>
    <edge id=":2026908835_4" function="internal">
        <lane id=":2026908835_4_0" index="0" allow="pedestrian delivery bicycle" speed="5.56" length="9.27" shape="109.21,116.03 111.09,117.84 111.84,119.74 111.47,121.75 109.98,123.85"/>
    </edge>
    <edge id=":2026908835_5" function="internal">
        <lane id=":2026908835_5_0" index="0" allow="pedestrian delivery bicycle" speed="3.78" length="5.18" shape="109.21,116.03 110.37,117.14 110.64,118.10 110.05,118.89 108.58,119.53"/>
    </edge>
    <edge id=":205365527_0" function="internal">
        <lane id=":205365527_0_0" index="0" disallow="tram rail_urban rail rail_electric rail_fast ship container cable_car subway aircraft wheelchair scooter drone" speed="8.86" length="5.49" shape="68.64,138.35 67.77,139.68 67.44,140.74 67.41,141.90 67.47,143.53"/>
    </edge>
    <edge id=":205365527_1" function="internal">
        <lane id=":205365527_1_0" index="0" disallow="tram rail_urban rail rail_electric rail_fast ship container cable_car subway aircraft wheelchair scooter drone" speed="13.89" length="6.43" shape="66.10,136.41 65.17,138.04 64.88,139.34 64.58,140.65 63.67,142.29"/>
    </edge>
    <edge id=":255468497_0" function="internal">
        <lane id=":255468497_0_0" index="0" disallow="tram rail_urban rail rail_electric rail_fast ship container cable_car subway aircraft wheelchair scooter drone" speed="13.89" length="7.95" shape="142.68,163.01 136.28,158.24"/>
        <lane id=":255468497_0_1" index="1" disallow="tram rail_urban rail rail_electric rail_fast ship container cable_car subway aircraft wheelchair scooter drone" speed="13.89" length="7.95" shape="144.58,160.44 138.23,155.70"/>
    </edge>
    <edge id=":255468497_2" function="internal">
        <lane id=":255468497_2_0" index="0" disallow="tram rail_urban rail rail_electric rail_fast ship container cable_car subway aircraft wheelchair scooter drone" speed="7.97" length="7.40" shape="138.40,165.07 138.33,162.74 137.96,160.83 137.28,159.33 136.28,158.24"/>
    </edge>
    <edge id=":2752204719_0" function="internal">
        <lane id=":2752204719_0_0" index="0" disallow="tram rail_urban rail rail_electric rail_fast ship container cable_car subway aircraft wheelchair scooter drone" speed="13.89" length="0.10" shape="91.59,101.72 91.59,101.72"/>
        <lane id=":2752204719_0_1" index="1" disallow="tram rail_urban rail rail_electric rail_fast ship container cable_car subway aircraft wheelchair scooter drone" speed="13.89" length="0.10" shape="88.98,99.87 88.98,99.87"/>
    </edge>
    <edge id=":2752204719_2" function="internal">
        <lane id=":2752204719_2_0" index="0" disallow="tram rail_urban rail rail_electric rail_fast ship container cable_car subway aircraft wheelchair scooter drone" speed="13.89" length="0.10" shape="83.77,96.16 83.77,96.16"/>
        <lane id=":2752204719_2_1" index="1" disallow="tram rail_urban rail rail_electric rail_fast ship container cable_car subway aircraft wheelchair scooter drone" speed="13.89" length="0.10" shape="86.38,98.01 86.38,98.01"/>
    </edge>
    <edge id=":2752204774_0" function="internal">
        <lane id=":2752204774_0_0" index="0" disallow="tram rail_urban rail rail_electric rail_fast ship container cable_car subway aircraft wheelchair scooter drone" speed="13.89" length="5.16" shape="95.10,96.79 92.11,100.99"/>
        <lane id=":2752204774_0_1" index="1" disallow="tram rail_urban rail rail_electric rail_fast ship container cable_car subway aircraft wheelchair scooter drone" speed="13.89" length="5.16" shape="92.49,94.93 89.50,99.14"/>
    </edge>
    <edge id=":2752204774_2" function="internal">
        <lane id=":2752204774_2_0" index="0" disallow="tram rail_urban rail rail_electric rail_fast ship container cable_car subway aircraft wheelchair scooter drone" speed="13.89" length="5.16" shape="84.28,95.43 87.27,91.23"/>
        <lane id=":2752204774_2_1" index="1" disallow="tram rail_urban rail rail_electric rail_fast ship container cable_car subway aircraft wheelchair scooter drone" speed="13.89" length="5.16" shape="86.89,97.28 89.88,93.08"/>
    </edge>
    <edge id=":2752204803_0" function="internal">
        <lane id=":2752204803_0_0" index="0" disallow="tram rail_urban rail rail_electric rail_fast ship container cable_car subway aircraft wheelchair scooter drone" speed="27.78" length="0.10" shape="70.00,101.85 70.06,101.90"/>
    </edge>
    <edge id=":2752204803_1" function="internal">
        <lane id=":2752204803_1_0" index="0" disallow="tram rail_urban rail rail_electric rail_fast ship container cable_car subway aircraft wheelchair scooter drone" speed="27.78" length="0.16" shape="73.86,96.75 74.05,96.90"/>
        <lane id=":2752204803_1_1" index="1" disallow="tram rail_urban rail rail_electric rail_fast ship container cable_car subway aircraft wheelchair scooter drone" speed="27.78" length="0.16" shape="71.96,99.32 72.02,99.37"/>
    </edge>
    <edge id=":2752204813_0" function="internal">
        <lane id=":2752204813_0_0" index="0" disallow="tram rail_urban rail rail_electric rail_fast ship container cable_car subway aircraft wheelchair scooter drone" speed="13.89" length="5.11" shape="67.68,168.00 67.54,173.10"/>
    </edge>
    <edge id=":2752204815_0" function="internal">
        <lane id=":2752204815_0_0" index="0" disallow="tram rail_urban rail rail_electric rail_fast ship container cable_car subway aircraft wheelchair scooter drone" speed="13.89" length="0.75" shape="68.74,118.78 68.71,118.43"/>
        <lane id=":2752204815_0_1" index="1" disallow="tram rail_urban rail rail_electric rail_fast ship container cable_car subway aircraft wheelchair scooter drone" speed="8.95" length="0.75" shape="71.50,120.39 70.56,121.06"/>
    </edge>
    <edge id=":2752204817_0" function="internal">
        <lane id=":2752204817_0_0" index="0" disallow="tram rail_urban rail rail_electric rail_fast ship container cable_car subway aircraft wheelchair scooter drone" speed="13.89" length="0.25" shape="66.71,122.25 66.86,121.99"/>
        <lane id=":2752204817_0_1" index="1" disallow="tram rail_urban rail rail_electric rail_fast ship container cable_car subway aircraft wheelchair scooter drone" speed="13.89" length="0.25" shape="69.53,123.77 69.62,123.60"/>
    </edge>
    <edge id=":2752204819_0" function="internal">
        <lane id=":2752204819_0_0" index="0" disallow="tram rail_urban rail rail_electric rail_fast ship container cable_car subway aircraft wheelchair scooter drone" speed="3.65" length="4.67" shape="39.13,195.60 37.91,196.37 37.02,196.41 36.45,195.72 36.21,194.30"/>
    </edge>
    <edge id=":2752204840_0" function="internal">
        <lane id=":2752204840_0_0" index="0" disallow="tram rail_urban rail rail_electric rail_fast ship container cable_car subway aircraft wheelchair scooter drone" speed="27.78" length="0.70" shape="71.90,103.39 72.43,103.84"/>
    </edge>
    <edge id=":2752204840_1" function="internal">
        <lane id=":2752204840_1_0" index="0" disallow="tram rail_urban rail rail_electric rail_fast ship container cable_car subway aircraft wheelchair scooter drone" speed="27.78" length="0.64" shape="76.49,98.89 76.02,98.49"/>
        <lane id=":2752204840_1_1" index="1" disallow="tram rail_urban rail rail_electric rail_fast ship container cable_car subway aircraft wheelchair scooter drone" speed="27.78" length="0.64" shape="74.46,101.37 73.96,100.94"/>
    </edge>
    <edge id=":2752204999_0" function="internal">
        <lane id=":2752204999_0_0" index="0" disallow="tram rail_urban rail rail_electric rail_fast ship container cable_car subway aircraft wheelchair scooter drone" speed="22.22" length="6.20" shape="103.41,135.67 98.82,131.51"/>
        <lane id=":2752204999_0_1" index="1" disallow="tram rail_urban rail rail_electric rail_fast ship container cable_car subway aircraft wheelchair scooter drone" speed="22.22" length="6.20" shape="105.56,133.30 100.96,129.14"/>
        <lane id=":2752204999_0_2" index="2" disallow="tram rail_urban rail rail_electric rail_fast ship container cable_car subway aircraft wheelchair scooter drone" speed="22.22" length="6.20" shape="107.70,130.92 103.11,126.77"/>
        <lane id=":2752204999_0_3" index="3" disallow="tram rail_urban rail rail_electric rail_fast ship container cable_car subway aircraft wheelchair scooter drone" speed="22.22" length="6.20" shape="109.85,128.55 105.25,124.39"/>
    </edge>
    <edge id=":2752204999_4" function="internal">
        <lane id=":2752204999_4_0" index="0" allow="pedestrian delivery bicycle" speed="5.32" length="5.59" shape="107.99,125.95 106.68,127.06 105.44,127.56 104.24,127.47 103.11,126.77"/>
        <lane id=":2752204999_4_1" index="1" allow="pedestrian delivery bicycle" speed="4.35" length="3.38" shape="107.99,125.95 107.38,126.11 106.64,125.70 105.90,125.02 105.25,124.39"/>
    </edge>
    <edge id=":2754440695_0" function="internal">
        <lane id=":2754440695_0_0" index="0" allow="pedestrian delivery bicycle" speed="5.21" length="5.20" shape="147.73,87.00 146.40,86.34 145.20,86.22 144.11,86.63 143.15,87.58"/>
    </edge>
    <edge id=":2754440695_1" function="internal">
        <lane id=":2754440695_1_0" index="0" allow="pedestrian delivery bicycle" speed="5.56" length="10.41" shape="147.73,87.00 145.59,85.08 144.62,82.96 144.81,80.64 146.17,78.11"/>
    </edge>
    <edge id=":2754440695_2" function="internal">
        <lane id=":2754440695_2_0" index="0" allow="pedestrian delivery bicycle" speed="3.65" length="4.67" shape="147.73,87.00 147.17,85.67 147.28,84.78 148.06,84.33 149.50,84.33"/>
    </edge>
    <edge id=":2754440695_3" function="internal">
        <lane id=":2754440695_3_0" index="0" allow="pedestrian delivery bicycle" speed="4.99" length="5.06" shape="148.75,80.01 148.09,81.24 147.99,82.37 148.46,83.40 149.50,84.33"/>
    </edge>
    <edge id=":2754440695_4" function="internal">
        <lane id=":2754440695_4_0" index="0" allow="pedestrian delivery bicycle" speed="5.56" length="9.41" shape="148.75,80.01 143.15,87.58"/>
    </edge>
    <edge id=":2754440695_5" function="internal">
        <lane id=":2754440695_5_0" index="0" allow="pedestrian delivery bicycle" speed="3.65" length="4.67" shape="148.75,80.01 147.39,80.50 146.51,80.35 146.10,79.55 146.17,78.11"/>
    </edge>
    <edge id=":2754440695_6" function="internal">
        <lane id=":2754440695_6_0" index="0" allow="pedestrian delivery bicycle" speed="5.56" length="9.41" shape="140.58,85.68 146.17,78.11"/>
    </edge>
    <edge id=":2754440695_7" function="internal">
        <lane id=":2754440695_7_0" index="0" allow="pedestrian delivery bicycle" speed="5.56" length="10.18" shape="140.58,85.68 142.49,83.76 144.62,82.90 146.95,83.09 149.50,84.33"/>
    </edge>
    <edge id=":2754440695_8" function="internal">
        <lane id=":2754440695_8_0" index="0" allow="pedestrian delivery bicycle" speed="3.65" length="4.67" shape="140.58,85.68 141.94,85.19 142.82,85.34 143.22,86.14 143.15,87.58"/>
    </edge>
    <edge id=":2754440705_0" function="internal">
        <lane id=":2754440705_0_0" index="0" allow="pedestrian delivery bicycle" speed="3.65" length="4.67" shape="186.28,82.75 187.63,82.23 188.51,82.36 188.93,83.15 188.90,84.59"/>
    </edge>
    <edge id=":6344125219_0" function="internal">
        <lane id=":6344125219_0_0" index="0" disallow="tram rail_urban rail rail_electric rail_fast ship container cable_car subway aircraft wheelchair scooter drone" speed="18.05" length="6.87" shape="118.99,145.00 117.07,144.17 115.42,144.29 113.81,144.38 112.00,143.42"/>
        <lane id=":6344125219_0_1" index="1" disallow="tram rail_urban rail rail_electric rail_fast ship container cable_car subway aircraft wheelchair scooter drone" speed="18.05" length="6.87" shape="120.93,142.46 119.07,141.67 117.47,141.83 115.90,141.95 114.14,141.05"/>
        <lane id=":6344125219_0_2" index="2" disallow="tram rail_urban rail rail_electric rail_fast ship container cable_car subway aircraft wheelchair scooter drone" speed="18.05" length="6.87" shape="120.93,142.46 116.28,138.67"/>
        <lane id=":6344125219_0_3" index="3" disallow="tram rail_urban rail rail_electric rail_fast ship container cable_car subway aircraft wheelchair scooter drone" speed="18.05" length="6.87" shape="120.93,142.46 119.77,140.95 119.61,139.45 119.48,137.91 118.42,136.29"/>
    </edge>
    <edge id=":6344125222_0" function="internal">
        <lane id=":6344125222_0_0" index="0" disallow="tram rail_urban rail rail_electric rail_fast ship container cable_car subway aircraft wheelchair scooter drone" speed="13.89" length="5.96" shape="78.02,116.07 77.58,117.51 77.99,118.64 78.57,119.83 78.67,121.48"/>
        <lane id=":6344125222_0_1" index="1" disallow="tram rail_urban rail rail_electric rail_fast ship container cable_car subway aircraft wheelchair scooter drone" speed="13.89" length="5.96" shape="78.02,116.07 77.00,117.62 76.30,118.70 75.80,119.86 75.38,121.64"/>
    </edge>
    <edge id=":6344125222_2" function="internal">
        <lane id=":6344125222_2_0" index="0" disallow="tram rail_urban rail rail_electric rail_fast ship container cable_car subway aircraft wheelchair scooter drone" speed="3.65" length="1.44" shape="78.02,116.07 76.71,116.66"/>
    </edge>
    <edge id=":6344125222_5" function="internal">
        <lane id=":6344125222_5_0" index="0" disallow="tram rail_urban rail rail_electric rail_fast ship container cable_car subway aircraft wheelchair scooter drone" speed="3.65" length="3.23" shape="76.71,116.66 75.82,116.58 75.35,115.81 75.31,114.37"/>
    </edge>
    <edge id=":6344125222_3" function="internal">
        <lane id=":6344125222_3_0" index="0" disallow="tram rail_urban rail rail_electric rail_fast ship container cable_car subway aircraft wheelchair scooter drone" speed="13.89" length="7.45" shape="68.86,118.30 70.29,116.91 71.03,115.75 71.62,114.46 72.60,112.67"/>
        <lane id=":6344125222_3_1" index="1" disallow="tram rail_urban rail rail_electric rail_fast ship container cable_car subway aircraft wheelchair scooter drone" speed="13.89" length="7.45" shape="70.71,120.93 72.43,119.30 73.37,117.96 74.13,116.47 75.31,114.37"/>
    </edge>
    <edge id=":6344151702_0" function="internal">
        <lane id=":6344151702_0_0" index="0" disallow="tram rail_urban rail rail_electric rail_fast ship container cable_car subway aircraft wheelchair scooter drone" speed="3.65" length="4.67" shape="120.32,49.45 121.62,48.82 122.51,48.88 123.00,49.63 123.08,51.07"/>
    </edge>
    <edge id=":6396531970_0" function="internal">
        <lane id=":6396531970_0_0" index="0" disallow="tram rail_urban rail rail_electric rail_fast ship container cable_car subway aircraft wheelchair scooter drone" speed="13.89" length="0.13" shape="61.58,145.06 61.56,145.09 61.56,145.11 61.55,145.14 61.54,145.18"/>
    </edge>
    <edge id=":6396531970_1" function="internal">
        <lane id=":6396531970_1_0" index="0" disallow="tram rail_urban rail rail_electric rail_fast ship container cable_car subway aircraft wheelchair scooter drone" speed="13.89" length="0.51" shape="55.69,142.58 55.99,142.02"/>
        <lane id=":6396531970_1_1" index="1" disallow="tram rail_urban rail rail_electric rail_fast ship container cable_car subway aircraft wheelchair scooter drone" speed="13.89" length="0.51" shape="58.62,143.88 58.80,143.54"/>
    </edge>
    <edge id=":6396531971_0" function="internal">
        <lane id=":6396531971_0_0" index="0" disallow="tram rail_urban rail rail_electric rail_fast ship container cable_car subway aircraft wheelchair scooter drone" speed="13.89" length="0.87" shape="76.67,127.56 76.52,127.92 76.40,128.16 76.26,128.38 76.03,128.69"/>
        <lane id=":6396531971_0_1" index="1" disallow="tram rail_urban rail rail_electric rail_fast ship container cable_car subway aircraft wheelchair scooter drone" speed="13.89" length="0.87" shape="73.70,126.37 73.65,126.49 73.61,126.57 73.56,126.64 73.48,126.74"/>
    </edge>
    <edge id=":6436895572_0" function="internal">
        <lane id=":6436895572_0_0" index="0" disallow="tram rail_urban rail rail_electric rail_fast ship container cable_car subway aircraft wheelchair scooter drone" speed="5.77" length="7.80" shape="84.70,118.79 82.28,116.79 80.38,115.65 79.00,115.35 78.13,115.90"/>
    </edge>
    <edge id=":6436895572_1" function="internal">
        <lane id=":6436895572_1_0" index="0" disallow="tram rail_urban rail rail_electric rail_fast ship container cable_car subway aircraft wheelchair scooter drone" speed="25.00" length="19.63" shape="86.85,116.41 72.05,103.52"/>
    </edge>
    <edge id=":6436895572_2" function="internal">
        <lane id=":6436895572_2_0" index="0" disallow="tram rail_urban rail rail_electric rail_fast ship container cable_car subway aircraft wheelchair scooter drone" speed="9.77" length="19.74" shape="88.99,114.04 84.53,109.28 82.07,104.85 81.61,100.77 83.15,97.02"/>
        <lane id=":6436895572_2_1" index="1" disallow="tram rail_urban rail rail_electric rail_fast ship container cable_car subway aircraft wheelchair scooter drone" speed="8.60" length="15.08" shape="91.14,111.66 87.50,107.88 85.39,104.49 84.81,101.49 85.76,98.88"/>
    </edge>
    <edge id=":6436895572_4" function="internal">
        <lane id=":6436895572_4_0" index="0" disallow="tram rail_urban rail rail_electric rail_fast ship container cable_car subway aircraft wheelchair scooter drone" speed="13.89" length="18.56" shape="90.98,102.58 87.09,107.25 83.54,110.48 80.50,113.09 78.13,115.90"/>
    </edge>
    <edge id=":6436895572_5" function="internal">
        <lane id=":6436895572_5_0" index="0" disallow="tram rail_urban rail rail_electric rail_fast ship container cable_car subway aircraft wheelchair scooter drone" speed="8.97" length="19.25" shape="88.37,100.73 84.60,104.78 80.62,106.60 76.44,106.18 72.05,103.52"/>
    </edge>
    <edge id=":6436895572_6" function="internal">
        <lane id=":6436895572_6_0" index="0" disallow="tram rail_urban rail rail_electric rail_fast ship container cable_car subway aircraft wheelchair scooter drone" speed="3.65" length="4.67" shape="88.37,100.73 87.03,101.24 86.14,101.11 85.72,100.32 85.76,98.88"/>
    </edge>
    <edge id=":6436895572_7" function="internal">
        <lane id=":6436895572_7_0" index="0" disallow="tram rail_urban rail rail_electric rail_fast ship container cable_car subway aircraft wheelchair scooter drone" speed="6.10" length="8.31" shape="76.17,98.62 77.98,99.68 79.75,99.76 81.47,98.88 83.15,97.02"/>
    </edge>
    <edge id=":6436895572_8" function="internal">
        <lane id=":6436895572_8_0" index="0" disallow="tram rail_urban rail rail_electric rail_fast ship container cable_car subway aircraft wheelchair scooter drone" speed="9.75" length="19.27" shape="76.17,98.62 79.43,102.34 80.84,106.46 80.41,110.98 78.13,115.90"/>
    </edge>
    <edge id=":6436895572_9" function="internal">
        <lane id=":6436895572_9_0" index="0" disallow="tram rail_urban rail rail_electric rail_fast ship container cable_car subway aircraft wheelchair scooter drone" speed="3.65" length="1.44" shape="74.11,101.07 74.51,102.45"/>
    </edge>
    <edge id=":6436895572_14" function="internal">
        <lane id=":6436895572_14_0" index="0" disallow="tram rail_urban rail rail_electric rail_fast ship container cable_car subway aircraft wheelchair scooter drone" speed="3.65" length="3.23" shape="74.51,102.45 74.30,103.32 73.48,103.68 72.05,103.52"/>
    </edge>
    <edge id=":6436895572_10" function="internal">
        <lane id=":6436895572_10_0" index="0" disallow="tram rail_urban rail rail_electric rail_fast ship container cable_car subway aircraft wheelchair scooter drone" speed="7.16" length="9.97" shape="72.70,112.50 73.96,109.87 74.27,107.50 73.63,105.38 72.05,103.52"/>
    </edge>
    <edge id=":6436895572_11" function="internal">
        <lane id=":6436895572_11_0" index="0" disallow="tram rail_urban rail rail_electric rail_fast ship container cable_car subway aircraft wheelchair scooter drone" speed="13.89" length="18.58" shape="72.70,112.50 83.15,97.02"/>
        <lane id=":6436895572_11_1" index="1" disallow="tram rail_urban rail rail_electric rail_fast ship container cable_car subway aircraft wheelchair scooter drone" speed="13.89" length="18.58" shape="75.42,114.20 85.76,98.88"/>