<?xml version="1.0" encoding="UTF-8"?>

<routes xmlns:xsi="http://www.w3.org/2001/XMLSchema-instance" xsi:noNamespaceSchemaLocation="http://sumo.dlr.de/xsd/routes_file.xsd">

    <!-- Rota 1 -->
    <vehicle id="0" depart="0.00">
        <route edges="686704771#0 686704771#1 686704771#2 650122888#0 650122888#1 650122888#2"/>
    </vehicle>
    <vehicle id="28" depart="1.00">
        <route edges="686704771#0 686704771#1 686704771#2 650122888#0 650122888#1 650122888#2"/>
    </vehicle>
    <vehicle id="29" depart="2.00">
        <route edges="686704771#0 686704771#1 686704771#2 650122888#0 650122888#1 650122888#2"/>
    </vehicle>

    <!-- Rota 2 -->
    <vehicle id="1" depart="5.00">
        <route edges="270159751#0 270159751#1 705519301#0 705519301#1 705519301#2 686704772 -686704771#2 -686704771#1 -686704771#0"/>
    </vehicle>
    <vehicle id="30" depart="6.00">
        <route edges="270159751#0 270159751#1 705519301#0 705519301#1 705519301#2 686704772 -686704771#2 -686704771#1 -686704771#0"/>
    </vehicle>
    <vehicle id="31" depart="7.00">
        <route edges="270159751#0 270159751#1 705519301#0 705519301#1 705519301#2 686704772 -686704771#2 -686704771#1 -686704771#0"/>
    </vehicle>

    <!-- Rota 3 -->
    <vehicle id="2" depart="10.00">
        <route edges="-650122888#2 -650122888#1 -650122888#0 -686704771#2 -686704771#1 -686704771#0"/>
    </vehicle>
    <vehicle id="32" depart="11.00">
        <route edges="-650122888#2 -650122888#1 -650122888#0 -686704771#2 -686704771#1 -686704771#0"/>
    </vehicle>
    <vehicle id="33" depart="12.00">
        <route edges="-650122888#2 -650122888#1 -650122888#0 -686704771#2 -686704771#1 -686704771#0"/>
    </vehicle>

    <!-- Rota 4 -->
    <vehicle id="3" depart="15.00">
        <route edges="677557372#0 677557372#1 677557369#0 677557369#1 677557369#2 677557369#3 677557369#4 650122888#0 650122888#1 650122888#2"/>
    </vehicle>
    <vehicle id="34" depart="16.00">
        <route edges="677557372#0 677557372#1 677557369#0 677557369#1 677557369#2 677557369#3 677557369#4 650122888#0 650122888#1 650122888#2"/>
    </vehicle>
    <vehicle id="35" depart="17.00">
        <route edges="677557372#0 677557372#1 677557369#0 677557369#1 677557369#2 677557369#3 677557369#4 650122888#0 650122888#1 650122888#2"/>
    </vehicle>

    <!-- Rota 5 -->
    <vehicle id="4" depart="20.00">
        <route edges="677557372#0 677557372#1 677557369#0 677557369#1 677557369#2 677557369#3 677557369#4 -686704771#2 -686704771#1 -686704771#0"/>
    </vehicle>
    <vehicle id="36" depart="21.00">
        <route edges="677557372#0 677557372#1 677557369#0 677557369#1 677557369#2 677557369#3 677557369#4 -686704771#2 -686704771#1 -686704771#0"/>
    </vehicle>
    <vehicle id="37" depart="22.00">
        <route edges="677557372#0 677557372#1 677557369#0 677557369#1 677557369#2 677557369#3 677557369#4 -686704771#2 -686704771#1 -686704771#0"/>
    </vehicle>

    <!-- Rota 6 -->
    <vehicle id="5" depart="25.00">
        <route edges="686704771#0 686704771#1 686704771#2 -686704772 682926168#0 682926168#1 19747826 1354383420"/>
    </vehicle>
    <vehicle id="38" depart="26.00">
        <route edges="686704771#0 686704771#1 686704771#2 -686704772 682926168#0 682926168#1 19747826 1354383420"/>
    </vehicle>
    <vehicle id="39" depart="27.00">
        <route edges="686704771#0 686704771#1 686704771#2 -686704772 682926168#0 682926168#1 19747826 1354383420"/>
    </vehicle>

    <!-- Rota 7 -->
    <vehicle id="6" depart="30.00">
        <route edges="-650122888#2 -650122888#1 -650122888#0 -686704772 682926168#0 682926168#1 705519303 -270159751#1 -270159751#0"/>
    </vehicle>
    <vehicle id="40" depart="31.00">
        <route edges="-650122888#2 -650122888#1 -650122888#0 -686704772 682926168#0 682926168#1 705519303 -270159751#1 -270159751#0"/>
    </vehicle>
    <vehicle id="41" depart="32.00">
        <route edges="-650122888#2 -650122888#1 -650122888#0 -686704772 682926168#0 682926168#1 705519303 -270159751#1 -270159751#0"/>
    </vehicle>

    <!-- Rota 8 -->
    <vehicle id="7" depart="35.00">
        <route edges="270159751#0 270159751#1 705519301#0 705519301#1 705519301#2 686704772 650122888#0 650122888#1 650122888#2"/>
    </vehicle>
    <vehicle id="42" depart="36.00">
        <route edges="270159751#0 270159751#1 705519301#0 705519301#1 705519301#2 686704772 650122888#0 650122888#1 650122888#2"/>
    </vehicle>
    <vehicle id="43" depart="37.00">
        <route edges="270159751#0 270159751#1 705519301#0 705519301#1 705519301#2 686704772 650122888#0 650122888#1 650122888#2"/>
    </vehicle>

    <!-- Rota 9 -->
    <vehicle id="8" depart="40.00">
        <route edges="-650122888#2 -650122888#1 -650122888#0 -686704771#2 -686704771#1 -686704771#0"/>
    </vehicle>
    <vehicle id="44" depart="41.00">
        <route edges="-650122888#2 -650122888#1 -650122888#0 -686704771#2 -686704771#1 -686704771#0"/>
    </vehicle>
    <vehicle id="45" depart="42.00">
        <route edges="-650122888#2 -650122888#1 -650122888#0 -686704771#2 -686704771#1 -686704771#0"/>
    </vehicle>

    <!-- Continuar com os restantes veículos originais -->
    <vehicle id="9" depart="45.00">
        <route edges="-650122888#2 -650122888#1 -650122888#0 -686704771#2 -686704771#1 -686704771#0"/>
    </vehicle>
    <vehicle id="46" depart="46.00">
        <route edges="-650122888#2 -650122888#1 -650122888#0 -686704771#2 -686704771#1 -686704771#0"/>
    </vehicle>
    <vehicle id="47" depart="47.00">
        <route edges="-650122888#2 -650122888#1 -650122888#0 -686704771#2 -686704771#1 -686704771#0"/>
    </vehicle>

    <vehicle id="10" depart="50.00">
        <route edges="686704771#0 686704771#1 686704771#2 -686704772 682926168#0 682926168#1 19747826 1354383420"/>
    </vehicle>
    <vehicle id="48" depart="51.00">
        <route edges="686704771#0 686704771#1 686704771#2 -686704772 682926168#0 682926168#1 19747826 1354383420"/>
    </vehicle>
    <vehicle id="49" depart="52.00">
        <route edges="686704771#0 686704771#1 686704771#2 -686704772 682926168#0 682926168#1 19747826 1354383420"/>
    </vehicle>

    <vehicle id="11" depart="55.00">
        <route edges="677557372#0 677557372#1 677557369#0 677557369#1 677557369#2 677557369#3 677557369#4 -686704772 682926168#0 682926168#1 705519303 -270159751#1 -270159751#0"/>
    </vehicle>
    <vehicle id="50" depart="56.00">
        <route edges="677557372#0 677557372#1 677557369#0 677557369#1 677557369#2 677557369#3 677557369#4 -686704772 682926168#0 682926168#1 705519303 -270159751#1 -270159751#0"/>
    </vehicle>
    <vehicle id="51" depart="57.00">
        <route edges="677557372#0 677557372#1 677557369#0 677557369#1 677557369#2 677557369#3 677557369#4 -686704772 682926168#0 682926168#1 705519303 -270159751#1 -270159751#0"/>
    </vehicle>

    <vehicle id="12" depart="60.00">
        <route edges="686704771#0 686704771#1 686704771#2 -686704772 682926168#0 682926168#1 19747826 1354383420"/>
    </vehicle>
    <vehicle id="52" depart="61.00">
        <route edges="686704771#0 686704771#1 686704771#2 -686704772 682926168#0 682926168#1 19747826 1354383420"/>
    </vehicle>
    <vehicle id="53" depart="62.00">
        <route edges="686704771#0 686704771#1 686704771#2 -686704772 682926168#0 682926168#1 19747826 1354383420"/>
    </vehicle>

    <vehicle id="13" depart="65.00">
        <route edges="-650122888#2 -650122888#1 -650122888#0 -686704772 682926168#0 682926168#1 705519303 -270159751#1 -270159751#0"/>
    </vehicle>
    <vehicle id="54" depart="66.00">
        <route edges="-650122888#2 -650122888#1 -650122888#0 -686704772 682926168#0 682926168#1 705519303 -270159751#1 -270159751#0"/>
    </vehicle>
    <vehicle id="55" depart="67.00">
        <route edges="-650122888#2 -650122888#1 -650122888#0 -686704772 682926168#0 682926168#1 705519303 -270159751#1 -270159751#0"/>
    </vehicle>

    <vehicle id="14" depart="70.00">
        <route edges="270159751#0 270159751#1 705519301#0 705519301#1 705519301#2 686704772 -686704771#2 -686704771#1 -686704771#0"/>
    </vehicle>
    <vehicle id="56" depart="71.00">
        <route edges="270159751#0 270159751#1 705519301#0 705519301#1 705519301#2 686704772 -686704771#2 -686704771#1 -686704771#0"/>
    </vehicle>
    <vehicle id="57" depart="72.00">
        <route edges="270159751#0 270159751#1 705519301#0 705519301#1 705519301#2 686704772 -686704771#2 -686704771#1 -686704771#0"/>
    </vehicle>

    <!-- Rota 15 -->
    <vehicle id="15" depart="75.00">
        <route edges="686704771#0 686704771#1 686704771#2 650122888#0 650122888#1 650122888#2"/>
    </vehicle>
    <vehicle id="58" depart="76.00">
        <route edges="686704771#0 686704771#1 686704771#2 650122888#0 650122888#1 650122888#2"/>
    </vehicle>
    <vehicle id="59" depart="77.00">
        <route edges="686704771#0 686704771#1 686704771#2 650122888#0 650122888#1 650122888#2"/>
    </vehicle>

    <!-- Rota 16 -->
    <vehicle id="16" depart="80.00">
        <route edges="677557372#0 677557372#1 677557369#0 677557369#1 677557369#2 677557369#3 677557369#4 -686704772 682926168#0 682926168#1 705519303 -270159751#1 -270159751#0"/>
    </vehicle>
    <vehicle id="60" depart="81.00">
        <route edges="677557372#0 677557372#1 677557369#0 677557369#1 677557369#2 677557369#3 677557369#4 -686704772 682926168#0 682926168#1 705519303 -270159751#1 -270159751#0"/>
    </vehicle>
    <vehicle id="61" depart="82.00">
        <route edges="677557372#0 677557372#1 677557369#0 677557369#1 677557369#2 677557369#3 677557369#4 -686704772 682926168#0 682926168#1 705519303 -270159751#1 -270159751#0"/>
    </vehicle>

    <!-- Rota 17 -->
    <vehicle id="17" depart="85.00">
        <route edges="-650122888#2 -650122888#1 -650122888#0 -686704771#2 -686704771#1 -686704771#0"/>
    </vehicle>
    <vehicle id="62" depart="86.00">
        <route edges="-650122888#2 -650122888#1 -650122888#0 -686704771#2 -686704771#1 -686704771#0"/>
    </vehicle>
    <vehicle id="63" depart="87.00">
        <route edges="-650122888#2 -650122888#1 -650122888#0 -686704771#2 -686704771#1 -686704771#0"/>
    </vehicle>
    <!-- Rota 18 -->
    <vehicle id="18" depart="90.00">
        <route edges="677557372#0 677557372#1 677557369#0 677557369#1 677557369#2 677557369#3 677557369#4 650122888#0 650122888#1 650122888#2"/>
    </vehicle>
    <vehicle id="64" depart="91.00">
        <route edges="677557372#0 677557372#1 677557369#0 677557369#1 677557369#2 677557369#3 677557369#4 650122888#0 650122888#1 650122888#2"/>
    </vehicle>
    <vehicle id="65" depart="92.00">
        <route edges="677557372#0 677557372#1 677557369#0 677557369#1 677557369#2 677557369#3 677557369#4 650122888#0 650122888#1 650122888#2"/>
    </vehicle>

    <!-- Rota 19 -->
    <vehicle id="19" depart="95.00">
        <route edges="677557372#0 677557372#1 677557369#0 677557369#1 677557369#2 677557369#3 677557369#4 -686704771#2 -686704771#1 -686704771#0"/>
    </vehicle>
    <vehicle id="66" depart="96.00">
        <route edges="677557372#0 677557372#1 677557369#0 677557369#1 677557369#2 677557369#3 677557369#4 -686704771#2 -686704771#1 -686704771#0"/>
    </vehicle>
    <vehicle id="67" depart="97.00">
        <route edges="677557372#0 677557372#1 677557369#0 677557369#1 677557369#2 677557369#3 677557369#4 -686704771#2 -686704771#1 -686704771#0"/>
    </vehicle>

    <!-- Rota 20 -->
    <vehicle id="20" depart="100.00">
        <route edges="270159751#0 270159751#1 705519301#0 705519301#1 705519301#2 686704772 650122888#0 650122888#1 650122888#2"/>
    </vehicle>
    <vehicle id="68" depart="101.00">
        <route edges="270159751#0 270159751#1 705519301#0 705519301#1 705519301#2 686704772 650122888#0 650122888#1 650122888#2"/>
    </vehicle>
    <vehicle id="69" depart="102.00">
        <route edges="270159751#0 270159751#1 705519301#0 705519301#1 705519301#2 686704772 650122888#0 650122888#1 650122888#2"/>
    </vehicle>

    <!-- Rota 21 -->
    <vehicle id="21" depart="105.00">
        <route edges="270159751#0 270159751#1 705519301#0 705519301#1 705519301#2 686704772 -686704771#2 -686704771#1 -686704771#0"/>
    </vehicle>
    <vehicle id="70" depart="106.00">
        <route edges="270159751#0 270159751#1 705519301#0 705519301#1 705519301#2 686704772 -686704771#2 -686704771#1 -686704771#0"/>
    </vehicle>
    <vehicle id="71" depart="107.00">
        <route edges="270159751#0 270159751#1 705519301#0 705519301#1 705519301#2 686704772 -686704771#2 -686704771#1 -686704771#0"/>
    </vehicle>

    <!-- Rota 22 -->
    <vehicle id="22" depart="110.00">
        <route edges="677557372#0 677557372#1 677557369#0 677557369#1 677557369#2 677557369#3 677557369#4 -686704771#2 -686704771#1 -686704771#0"/>
    </vehicle>
    <vehicle id="72" depart="111.00">
        <route edges="677557372#0 677557372#1 677557369#0 677557369#1 677557369#2 677557369#3 677557369#4 -686704771#2 -686704771#1 -686704771#0"/>
    </vehicle>
    <vehicle id="73" depart="112.00">
        <route edges="677557372#0 677557372#1 677557369#0 677557369#1 677557369#2 677557369#3 677557369#4 -686704771#2 -686704771#1 -686704771#0"/>
    </vehicle>

    <!-- Rota 23 -->
    <vehicle id="23" depart="115.00">
        <route edges="677557372#0 677557372#1 677557369#0 677557369#1 677557369#2 677557369#3 677557369#4 -686704772 682926168#0 682926168#1 705519303 -270159751#1 -270159751#0"/>
    </vehicle>
    <vehicle id="74" depart="116.00">
        <route edges="677557372#0 677557372#1 677557369#0 677557369#1 677557369#2 677557369#3 677557369#4 -686704772 682926168#0 682926168#1 705519303 -270159751#1 -270159751#0"/>
    </vehicle>
    <vehicle id="75" depart="117.00">
        <route edges="677557372#0 677557372#1 677557369#0 677557369#1 677557369#2 677557369#3 677557369#4 -686704772 682926168#0 682926168#1 705519303 -270159751#1 -270159751#0"/>
    </vehicle>

    <!-- Rota 24 -->
    <vehicle id="24" depart="120.00">
        <route edges="686704771#0 686704771#1 686704771#2 650122888#0 650122888#1 650122888#2"/>
    </vehicle>
    <vehicle id="76" depart="121.00">
        <route edges="686704771#0 686704771#1 686704771#2 650122888#0 650122888#1 650122888#2"/>
    </vehicle>
    <vehicle id="77" depart="122.00">
        <route edges="686704771#0 686704771#1 686704771#2 650122888#0 650122888#1 650122888#2"/>
    </vehicle>

    <!-- Rota 25 -->
    <vehicle id="25" depart="125.00">
        <route edges="677557372#0 677557372#1 677557369#0 677557369#1 677557369#2 677557369#3 677557369#4 650122888#0 650122888#1 650122888#2"/>
    </vehicle>
    <vehicle id="78" depart="126.00">
        <route edges="677557372#0 677557372#1 677557369#0 677557369#1 677557369#2 677557369#3 677557369#4 650122888#0 650122888#1 650122888#2"/>
    </vehicle>
    <vehicle id="79" depart="127.00">
        <route edges="677557372#0 677557372#1 677557369#0 677557369#1 677557369#2 677557369#3 677557369#4 650122888#0 650122888#1 650122888#2"/>
    </vehicle>

    <!-- Rota 26 -->
    <vehicle id="26" depart="130.00">
        <route edges="270159751#0 270159751#1 705519301#0 705519301#1 705519301#2 686704772 -686704771#2 -686704771#1 -686704771#0"/>
    </vehicle>
    <vehicle id="80" depart="131.00">
        <route edges="270159751#0 270159751#1 705519301#0 705519301#1 705519301#2 686704772 -686704771#2 -686704771#1 -686704771#0"/>
    </vehicle>
    <vehicle id="81" depart="132.00">
        <route edges="270159751#0 270159751#1 705519301#0 705519301#1 705519301#2 686704772 -686704771#2 -686704771#1 -686704771#0"/>
    </vehicle>

    <!-- Rota 27 -->
    <vehicle id="27" depart="135.00">
        <route edges="-650122888#2 -650122888#1 -650122888#0 -686704772 682926168#0 682926168#1 705519303 -270159751#1 -270159751#0"/>
    </vehicle>
    <vehicle id="82" depart="136.00">
        <route edges="-650122888#2 -650122888#1 -650122888#0 -686704772 682926168#0 682926168#1 705519303 -270159751#1 -270159751#0"/>
    </vehicle>
    <vehicle id="83" depart="137.00">
        <route edges="-650122888#2 -650122888#1 -650122888#0 -686704772 682926168#0 682926168#1 705519303 -270159751#1 -270159751#0"/>
    </vehicle>

</routes>