<?xml version="1.0" encoding="UTF-8"?>

<!-- generated on 2025-09-16 19:06:57 by Eclipse SUMO netedit Version 1.24.0
<neteditConfiguration xmlns:xsi="http://www.w3.org/2001/XMLSchema-instance" xsi:noNamespaceSchemaLocation="http://sumo.dlr.de/xsd/neteditConfiguration.xsd">

    <input>
        <node-files value="C:\Users\maria\Desktop\Geekathon\tls.add.nod.xml"/>
        <edge-files value="C:\Users\maria\Desktop\Geekathon\tls.add.edg.xml"/>
        <connection-files value="C:\Users\maria\Desktop\Geekathon\tls.add.con.xml"/>
        <tllogic-files value="C:\Users\maria\Desktop\Geekathon\tls.add.tll.xml"/>
        <type-files value="C:\Users\maria\Desktop\Geekathon\tls.add.typ.xml"/>
    </input>

    <processing>
        <geometry.min-radius.fix.railways value="false"/>
        <geometry.avoid-overlap value="false"/>
        <geometry.max-grade.fix value="false"/>
        <offset.disable-normalization value="true"/>
        <lefthand value="0"/>
    </processing>

    <junctions>
        <no-turnarounds value="true"/>
        <junctions.corner-detail value="5"/>
        <junctions.limit-turn-speed value="5.50"/>
        <rectangular-lane-cut value="0"/>
    </junctions>

    <pedestrian>
        <walkingareas value="0"/>
    </pedestrian>

</neteditConfiguration>
-->

<edges version="1.20" xmlns:xsi="http://www.w3.org/2001/XMLSchema-instance" xsi:noNamespaceSchemaLocation="http://sumo.dlr.de/xsd/edges_file.xsd">
    <location netOffset="-516150.43,-4398963.13" convBoundary="0.00,0.00,272.04,267.33" origBoundary="-8.811507,39.740409,-8.808332,39.742818" projParameter="+proj=utm +zone=29 +ellps=WGS84 +datum=WGS84 +units=m +no_defs"/>

    <edge id="-192125485#0" from="2026908702" to="2026908697" priority="1" type="highway.service" numLanes="1" speed="5.56" allow="pedestrian delivery bicycle"/>
    <edge id="-192125485#1" from="2754440695" to="2026908702" priority="1" type="highway.service" numLanes="1" speed="5.56" shape="144.57,82.97 151.38,73.76 155.18,69.43 159.32,65.20" allow="pedestrian delivery bicycle"/>
    <edge id="-192125485#2" from="2026908835" to="2754440695" priority="1" type="highway.service" numLanes="1" speed="5.56" shape="113.93,119.70 115.66,119.36 117.50,119.02 118.77,117.88 144.57,82.97" allow="pedestrian delivery bicycle"/>
    <edge id="-192125485#3" from="2026908724" to="2026908835" priority="1" type="highway.service" numLanes="1" speed="5.56" shape="94.05,107.07 109.80,118.43 111.63,119.35 113.93,119.70" allow="pedestrian delivery bicycle"/>
    <edge id="-270159751#0" from="6697836701" to="2752204819" priority="11" type="highway.secondary" numLanes="1" speed="13.89" disallow="tram rail_urban rail rail_electric rail_fast ship container cable_car subway aircraft wheelchair scooter drone"/>
    <edge id="-270159751#1" from="6396531970" to="6697836701" priority="11" type="highway.secondary" numLanes="1" speed="13.89" disallow="tram rail_urban rail rail_electric rail_fast ship container cable_car subway aircraft wheelchair scooter drone"/>
    <edge id="-270417790#0" from="11949832341" to="2754440695" priority="1" type="highway.service" numLanes="1" speed="5.56" allow="pedestrian delivery bicycle"/>
    <edge id="-270417790#1" from="2754440705" to="11949832341" priority="1" type="highway.service" numLanes="1" speed="5.56" shape="187.59,83.67 179.65,94.97 163.49,94.34 157.42,91.53 156.81,91.12" allow="pedestrian delivery bicycle"/>
    <edge id="-650122888#0" from="2752204840" to="6436895572" priority="11" type="highway.secondary" numLanes="2" speed="27.78" disallow="tram rail_urban rail rail_electric rail_fast ship container cable_car subway aircraft wheelchair scooter drone"/>
    <edge id="-650122888#1" from="2752204803" to="2752204840" priority="11" type="highway.secondary" numLanes="2" speed="27.78" disallow="tram rail_urban rail rail_electric rail_fast ship container cable_car subway aircraft wheelchair scooter drone"/>
    <edge id="-650122888#2" from="1864358566" to="2752204803" priority="11" type="highway.secondary" numLanes="2" speed="27.78" shape="0.00,38.10 10.07,51.29 15.34,57.35 21.30,63.31 26.86,68.01 71.01,100.61" disallow="tram rail_urban rail rail_electric rail_fast ship container cable_car subway aircraft wheelchair scooter drone"/>
    <edge id="-686704771#0" from="2752204774" to="6344151702" priority="11" type="highway.secondary" numLanes="2" speed="13.89" shape="89.69,96.11 119.06,54.75 121.70,50.26" disallow="tram rail_urban rail rail_electric rail_fast ship container cable_car subway aircraft wheelchair scooter drone">
        <param key="ref" value="EM 543"/>
    </edge>
    <edge id="-686704771#1" from="2752204719" to="2752204774" priority="11" type="highway.secondary" numLanes="2" speed="13.89" disallow="tram rail_urban rail rail_electric rail_fast ship container cable_car subway aircraft wheelchair scooter drone">
        <param key="ref" value="EM 543"/>
    </edge>
    <edge id="-686704771#2" from="6436895572" to="2752204719" priority="11" type="highway.secondary" numLanes="2" speed="13.89" disallow="tram rail_urban rail rail_electric rail_fast ship container cable_car subway aircraft wheelchair scooter drone">
        <param key="ref" value="EM 543"/>
    </edge>
    <edge id="-686704772" from="6436895572" to="6344125222" priority="11" type="highway.secondary" numLanes="1" speed="13.89" disallow="tram rail_urban rail rail_electric rail_fast ship container cable_car subway aircraft wheelchair scooter drone"/>
    <edge id="-712358270" from="6697836699" to="454747351" priority="1" type="highway.service" numLanes="1" speed="5.56" shape="33.83,161.45 19.35,191.36 14.43,198.40" allow="pedestrian delivery bicycle"/>
    <edge id="-753589633#0" from="11949872882" to="7041014767" priority="1" type="highway.service" numLanes="1" speed="5.56" allow="pedestrian delivery bicycle"/>
    <edge id="-753589633#1" from="7041014768" to="11949872882" priority="1" type="highway.service" numLanes="1" speed="5.56" allow="pedestrian delivery bicycle"/>
    <edge id="1288635558" from="11949832308" to="11949832314" priority="1" type="highway.footway" numLanes="1" speed="2.78" shape="135.06,0.00 136.94,1.50 133.61,6.23 115.84,32.10 113.48,46.44 113.09,49.14 111.96,52.44 83.02,91.25" spreadType="center" width="2.00" allow="pedestrian"/>
    <edge id="1288635568#0" from="11949832333" to="11949832341" priority="1" type="highway.footway" numLanes="1" speed="2.78" shape="272.04,8.03 271.85,11.35 221.63,7.28 217.62,6.87 191.94,42.88 156.81,91.12" spreadType="center" width="2.00" allow="pedestrian"/>
    <edge id="1288635568#1" from="11949832341" to="11949832340" priority="1" type="highway.footway" numLanes="1" speed="2.78" spreadType="center" width="2.00" allow="pedestrian"/>
    <edge id="1288635568#2" from="11949832340" to="11949832342" priority="1" type="highway.footway" numLanes="1" speed="2.78" spreadType="center" width="2.00" allow="pedestrian"/>
    <edge id="1288639788#0" from="11949832314" to="2752204774" priority="1" type="highway.footway" numLanes="1" speed="2.78" spreadType="center" width="2.00" allow="pedestrian"/>
    <edge id="1288639788#1" from="2752204774" to="11949799429" priority="1" type="highway.footway" numLanes="1" speed="2.78" spreadType="center" width="2.00" allow="pedestrian"/>
    <edge id="1288639789#0" from="11949832340" to="11949799436" priority="1" type="highway.footway" numLanes="1" speed="2.78" shape="121.37,140.46 115.27,131.19 108.26,125.67" spreadType="center" width="2.00" allow="pedestrian"/>
    <edge id="1288639789#1" from="11949799436" to="11949872883" priority="1" type="highway.footway" numLanes="1" speed="2.78" spreadType="center" width="2.00" allow="pedestrian"/>
    <edge id="1288639789#2" from="11949872883" to="11949799429" priority="1" type="highway.footway" numLanes="1" speed="2.78" shape="95.10,115.29 92.47,113.22 91.41,111.64 90.74,110.20 90.59,108.93 96.21,100.86" spreadType="center" width="2.00" allow="pedestrian"/>
    <edge id="1288639789#3" from="11949799429" to="11949799430" priority="1" type="highway.footway" numLanes="1" speed="2.78" spreadType="center" width="2.00" allow="pedestrian"/>
    <edge id="1288639794#0" from="11949799460" to="11949872882" priority="1" type="highway.footway" numLanes="1" speed="2.78" shape="87.43,129.55 89.96,130.46 107.78,143.11" spreadType="center" width="2.00" allow="pedestrian"/>
    <edge id="1288639794#1" from="11949872882" to="11949799460" priority="1" type="highway.footway" numLanes="1" speed="2.78" shape="107.78,143.11 119.88,151.71 126.09,156.62 129.29,159.62 131.19,162.22 132.69,165.82 133.49,169.52 133.36,180.02 132.09,258.93 131.49,261.03 130.28,262.33 128.27,263.12 72.72,253.22 70.92,252.21 69.12,250.71 68.42,249.31 67.72,247.01 76.87,140.83 81.00,131.94 82.71,130.44 84.42,129.85 87.43,129.55" spreadType="center" width="2.00" allow="pedestrian"/>
    <edge id="1288639796#0" from="11949799460" to="102768717" priority="1" type="highway.footway" numLanes="1" speed="2.78" spreadType="center" width="2.00" allow="pedestrian"/>
    <edge id="1288639796#1" from="102768717" to="11949872883" priority="1" type="highway.footway" numLanes="1" speed="2.78" spreadType="center" width="2.00" allow="pedestrian"/>
    <edge id="1354383420" from="2752204813" to="12533808289" priority="3" type="highway.residential" numLanes="1" speed="13.89" spreadType="center" disallow="tram rail_urban rail rail_electric rail_fast ship container cable_car subway aircraft wheelchair scooter drone"/>
    <edge id="192125485#0" from="2026908697" to="2026908702" priority="1" type="highway.service" numLanes="1" speed="5.56" allow="pedestrian delivery bicycle"/>
    <edge id="192125485#1" from="2026908702" to="2754440695" priority="1" type="highway.service" numLanes="1" speed="5.56" shape="159.32,65.20 155.18,69.43 151.38,73.76 144.57,82.97" allow="pedestrian delivery bicycle"/>
    <edge id="192125485#2" from="2754440695" to="2026908835" priority="1" type="highway.service" numLanes="1" speed="5.56" shape="144.57,82.97 118.77,117.88 117.50,119.02 115.66,119.36 113.93,119.70" allow="pedestrian delivery bicycle"/>
    <edge id="192125485#3" from="2026908835" to="2026908724" priority="1" type="highway.service" numLanes="1" speed="5.56" shape="113.93,119.70 111.63,119.35 109.80,118.43 94.05,107.07" allow="pedestrian delivery bicycle"/>
    <edge id="192125488" from="2026908702" to="2026908734" priority="1" type="highway.service" numLanes="1" speed="5.56" spreadType="center" allow="pedestrian delivery bicycle"/>
    <edge id="192125498#0" from="2026908835" to="11949799436" priority="1" type="highway.service" numLanes="1" speed="5.56" shape="113.93,119.70 109.47,124.39 108.26,125.67" spreadType="center" allow="pedestrian delivery bicycle"/>
    <edge id="192125498#1" from="11949799436" to="2752204999" priority="1" type="highway.service" numLanes="1" speed="5.56" spreadType="center" allow="pedestrian delivery bicycle"/>
    <edge id="19747826" from="205365527" to="2752204813" priority="3" type="highway.residential" numLanes="1" speed="13.89" shape="67.37,137.38 67.58,149.89 67.70,156.49 67.68,170.76" spreadType="center" disallow="tram rail_urban rail rail_electric rail_fast ship container cable_car subway aircraft wheelchair scooter drone"/>
    <edge id="23591892" from="255468496" to="255468497" priority="3" type="highway.residential" numLanes="1" speed="13.89" shape="135.13,267.33 135.16,261.95 137.89,180.31 138.64,158.03" spreadType="center" disallow="tram rail_urban rail rail_electric rail_fast ship container cable_car subway aircraft wheelchair scooter drone"/>
    <edge id="270159751#0" from="2752204819" to="6697836701" priority="11" type="highway.secondary" numLanes="2" speed="13.89" disallow="tram rail_urban rail rail_electric rail_fast ship container cable_car subway aircraft wheelchair scooter drone"/>
    <edge id="270159751#1" from="6697836701" to="6396531970" priority="11" type="highway.secondary" numLanes="2" speed="13.89" disallow="tram rail_urban rail rail_electric rail_fast ship container cable_car subway aircraft wheelchair scooter drone"/>
    <edge id="270417790#0" from="2754440695" to="11949832341" priority="1" type="highway.service" numLanes="1" speed="5.56" allow="pedestrian delivery bicycle"/>
    <edge id="270417790#1" from="11949832341" to="2754440705" priority="1" type="highway.service" numLanes="1" speed="5.56" shape="156.81,91.12 157.42,91.53 163.49,94.34 179.65,94.97 187.59,83.67" allow="pedestrian delivery bicycle"/>
    <edge id="540860438#0" from="2751830545" to="11949799430" priority="1" type="highway.pedestrian" numLanes="1" speed="2.78" shape="111.69,110.14 113.37,110.57 115.13,110.32 116.39,109.64 118.12,108.10 148.95,63.09 130.49,50.18 125.41,57.34 95.83,99.19 97.02,99.92" spreadType="center" width="2.00" allow="pedestrian"/>
    <edge id="540860438#1" from="11949799430" to="2751830545" priority="1" type="highway.pedestrian" numLanes="1" speed="2.78" shape="97.02,99.92 97.70,100.52 111.69,110.14" spreadType="center" width="2.00" allow="pedestrian"/>
    <edge id="556149755#0" from="5365009933" to="2756448684" priority="1" type="highway.pedestrian" numLanes="1" speed="2.78" shape="53.73,174.41 58.93,175.27 63.78,176.05 64.15,170.20" spreadType="center" width="2.00" allow="pedestrian"/>
    <edge id="556149755#1" from="2756448684" to="5365009933" priority="1" type="highway.pedestrian" numLanes="1" speed="2.78" shape="64.15,170.20 64.71,161.42 63.74,159.60 62.28,159.30 60.95,159.96 59.88,160.99 53.73,174.41" spreadType="center" width="2.00" allow="pedestrian"/>
    <edge id="650122888#0" from="6436895572" to="2752204840" priority="11" type="highway.secondary" numLanes="1" speed="27.78" disallow="tram rail_urban rail rail_electric rail_fast ship container cable_car subway aircraft wheelchair scooter drone"/>
    <edge id="650122888#1" from="2752204840" to="2752204803" priority="11" type="highway.secondary" numLanes="1" speed="27.78" disallow="tram rail_urban rail rail_electric rail_fast ship container cable_car subway aircraft wheelchair scooter drone"/>
    <edge id="650122888#2" from="2752204803" to="1864358566" priority="11" type="highway.secondary" numLanes="1" speed="27.78" shape="71.01,100.61 26.86,68.01 21.30,63.31 15.34,57.35 10.07,51.29 0.00,38.10" disallow="tram rail_urban rail rail_electric rail_fast ship container cable_car subway aircraft wheelchair scooter drone"/>
    <edge id="677557369#0" from="6344125219" to="7041014767" priority="10" type="highway.tertiary" numLanes="4" speed="22.22" spreadType="center" disallow="tram rail_urban rail rail_electric rail_fast ship container cable_car subway aircraft wheelchair scooter drone"/>
    <edge id="677557369#1" from="7041014767" to="2752204999" priority="10" type="highway.tertiary" numLanes="4" speed="22.22" spreadType="center" disallow="tram rail_urban rail rail_electric rail_fast ship container cable_car subway aircraft wheelchair scooter drone"/>
    <edge id="677557369#2" from="2752204999" to="102768717" priority="10" type="highway.tertiary" numLanes="4" speed="22.22" spreadType="center" disallow="tram rail_urban rail rail_electric rail_fast ship container cable_car subway aircraft wheelchair scooter drone"/>
    <edge id="677557369#3" from="102768717" to="102768718" priority="10" type="highway.tertiary" numLanes="4" speed="22.22" spreadType="center" disallow="tram rail_urban rail rail_electric rail_fast ship container cable_car subway aircraft wheelchair scooter drone"/>
    <edge id="677557369#4" from="102768718" to="6436895572" priority="10" type="highway.tertiary" numLanes="4" speed="22.22" spreadType="center" disallow="tram rail_urban rail rail_electric rail_fast ship container cable_car subway aircraft wheelchair scooter drone"/>
    <edge id="677557372#0" from="455701556" to="255468497" priority="10" type="highway.tertiary" numLanes="2" speed="13.89" shape="168.99,182.72 166.15,179.44 162.71,176.15 153.95,169.36 138.64,158.03" spreadType="center" disallow="tram rail_urban rail rail_electric rail_fast ship container cable_car subway aircraft wheelchair scooter drone"/>
    <edge id="677557372#1" from="255468497" to="6344125219" priority="10" type="highway.tertiary" numLanes="2" speed="13.89" spreadType="center" disallow="tram rail_urban rail rail_electric rail_fast ship container cable_car subway aircraft wheelchair scooter drone"/>
    <edge id="677762925" from="2756448684" to="2752204813" priority="1" type="highway.steps" numLanes="1" speed="1.39" spreadType="center" width="2.00" allow="pedestrian"/>
    <edge id="682926168#0" from="6344125222" to="6396531971" priority="11" type="highway.secondary" numLanes="2" speed="13.89" shape="77.25,114.29 77.50,118.99 76.75,123.06 75.02,127.37" spreadType="center" disallow="tram rail_urban rail rail_electric rail_fast ship container cable_car subway aircraft wheelchair scooter drone"/>
    <edge id="682926168#1" from="6396531971" to="205365527" priority="11" type="highway.secondary" numLanes="2" speed="13.89" spreadType="center" disallow="tram rail_urban rail rail_electric rail_fast ship container cable_car subway aircraft wheelchair scooter drone"/>
    <edge id="686704771#0" from="6344151702" to="2752204774" priority="11" type="highway.secondary" numLanes="2" speed="13.89" shape="121.70,50.26 119.06,54.75 89.69,96.11" disallow="tram rail_urban rail rail_electric rail_fast ship container cable_car subway aircraft wheelchair scooter drone">
        <param key="ref" value="EM 543"/>
    </edge>
    <edge id="686704771#1" from="2752204774" to="2752204719" priority="11" type="highway.secondary" numLanes="2" speed="13.89" disallow="tram rail_urban rail rail_electric rail_fast ship container cable_car subway aircraft wheelchair scooter drone">
        <param key="ref" value="EM 543"/>
    </edge>
    <edge id="686704771#2" from="2752204719" to="6436895572" priority="11" type="highway.secondary" numLanes="2" speed="13.89" disallow="tram rail_urban rail rail_electric rail_fast ship container cable_car subway aircraft wheelchair scooter drone">
        <param key="ref" value="EM 543"/>
    </edge>
    <edge id="686704772" from="6344125222" to="6436895572" priority="11" type="highway.secondary" numLanes="2" speed="13.89" disallow="tram rail_urban rail rail_electric rail_fast ship container cable_car subway aircraft wheelchair scooter drone"/>
    <edge id="705519301#0" from="6396531970" to="2752204817" priority="11" type="highway.secondary" numLanes="2" speed="13.89" shape="57.19,143.16 68.18,122.90" spreadType="center" disallow="tram rail_urban rail rail_electric rail_fast ship container cable_car subway aircraft wheelchair scooter drone"/>
    <edge id="705519301#1" from="2752204817" to="2752204815" priority="11" type="highway.secondary" numLanes="2" speed="13.89" spreadType="center" disallow="tram rail_urban rail rail_electric rail_fast ship container cable_car subway aircraft wheelchair scooter drone"/>
    <edge id="705519301#2" from="2752204815" to="6344125222" priority="11" type="highway.secondary" numLanes="2" speed="13.89" shape="70.40,119.10 73.57,116.45 77.25,114.29" spreadType="center" disallow="tram rail_urban rail rail_electric rail_fast ship container cable_car subway aircraft wheelchair scooter drone"/>
    <edge id="705519303" from="205365527" to="6396531970" priority="11" type="highway.secondary" numLanes="1" speed="13.89" shape="67.37,137.38 61.30,145.43" spreadType="center" disallow="tram rail_urban rail rail_electric rail_fast ship container cable_car subway aircraft wheelchair scooter drone"/>
    <edge id="712358270" from="454747351" to="6697836699" priority="1" type="highway.service" numLanes="1" speed="5.56" shape="14.43,198.40 19.35,191.36 33.83,161.45" allow="pedestrian delivery bicycle"/>
    <edge id="712358271" from="6697836701" to="6697836703" priority="1" type="highway.steps" numLanes="1" speed="1.39" shape="55.52,154.80 50.05,152.63 47.10,151.38" spreadType="center" width="2.00" allow="pedestrian"/>
    <edge id="712358272" from="6697836703" to="6697836704" priority="1" type="highway.steps" numLanes="1" speed="1.39" shape="47.10,151.38 44.60,158.94" spreadType="center" width="2.00" allow="pedestrian"/>
    <edge id="712358273" from="6697836703" to="6697836705" priority="1" type="highway.steps" numLanes="1" speed="1.39" spreadType="center" width="2.00" allow="pedestrian"/>
    <edge id="712358274#0" from="2538062896" to="6697836704" priority="1" type="highway.pedestrian" numLanes="1" speed="2.78" spreadType="center" width="2.00" allow="pedestrian"/>
    <edge id="712358274#1" from="6697836704" to="6697836705" priority="1" type="highway.pedestrian" numLanes="1" speed="2.78" shape="42.79,158.09 51.62,141.25" spreadType="center" width="2.00" allow="pedestrian"/>
    <edge id="712358274#2" from="6697836705" to="2538062896" priority="1" type="highway.pedestrian" numLanes="1" speed="2.78" shape="51.62,141.25 38.66,136.10 35.93,142.31 39.86,143.80 38.14,148.27 34.00,146.69 31.15,153.38" spreadType="center" width="2.00" allow="pedestrian"/>
    <edge id="753589633#0" from="7041014767" to="11949872882" priority="1" type="highway.service" numLanes="1" speed="5.56" allow="pedestrian delivery bicycle"/>
    <edge id="753589633#1" from="11949872882" to="7041014768" priority="1" type="highway.service" numLanes="1" speed="5.56" allow="pedestrian delivery bicycle"/>
</edges>
