<?xml version="1.0" encoding="UTF-8"?>

<routes xmlns:xsi="http://www.w3.org/2001/XMLSchema-instance" xsi:noNamespaceSchemaLocation="http://sumo.dlr.de/xsd/routes_file.xsd">
    <vehicle id="0" depart="0.00">
        <route edges="-650122888#2 -650122888#1 -650122888#0 -686704771#2 -686704771#1 -686704771#0"/>
    </vehicle>
    <vehicle id="1" depart="5.00">
        <route edges="-650122888#2 -650122888#1 -650122888#0 -686704772 682926168#0 682926168#1 705519303 -270159751#1 -270159751#0"/>
    </vehicle>
    <vehicle id="2" depart="10.00">
        <route edges="686704771#0 686704771#1 686704771#2 -686704772 686704772 650122888#0 650122888#1 650122888#2"/>
    </vehicle>
    <vehicle id="3" depart="15.00">
        <route edges="686704771#0 686704771#1 686704771#2 -686704772 682926168#0 682926168#1 19747826 1354383420"/>
    </vehicle>
    <vehicle id="4" depart="20.00">
        <route edges="677557372#0 677557372#1 677557369#0 677557369#1 677557369#2 677557369#3 677557369#4 -686704772 686704772 650122888#0 650122888#1 650122888#2"/>
    </vehicle>
    <vehicle id="5" depart="25.00">
        <route edges="677557372#0 677557372#1 677557369#0 677557369#1 677557369#2 677557369#3 677557369#4 -686704771#2 -686704771#1 -686704771#0"/>
    </vehicle>
    <vehicle id="6" depart="30.00">
        <route edges="677557372#0 677557372#1 677557369#0 677557369#1 677557369#2 677557369#3 677557369#4 -686704772 682926168#0 682926168#1 705519303 -270159751#1 -270159751#0"/>
    </vehicle>
    <vehicle id="7" depart="35.00">
        <route edges="270159751#0 270159751#1 705519301#0 705519301#1 705519301#2 686704772 650122888#0 650122888#1 650122888#2"/>
    </vehicle>
    <vehicle id="8" depart="40.00">
        <route edges="270159751#0 270159751#1 705519301#0 705519301#1 705519301#2 686704772 -686704771#2 -686704771#1 -686704771#0"/>
    </vehicle>
</routes>



